version 2
1
9
.TRAN 0.05 10 UIC{return}.kicad adjustpaths{return}.save all{return}.probe alli
1
1
V(/Charging)
 
