version 2
1
9
.tran 100u 1m{return}.kicad adjustpaths{return}.save all{return}.probe alli
1
1
V(Net-_R1-Pad1_)
 
