version 2
1
9
.TRAN 0.05 1 UIC{return}{return}.PLOT TRAN I{L1}{return}.kicad adjustpaths{return}.save all{return}.probe alli
1
2
I(L1)
 
