version 2
1
9
.tran 100u 10m{return}.kicad adjustpaths{return}.save all{return}.probe alli
2
2
I(V1)
 
1
V(Net-_R1-Pad1_)
 
