version 2
1
9
.tran 100u 1m{return}.kicad adjustpaths{return}.save all{return}.probe alli
2
1
V(Net-_BT1-+_)
 
1
V(Net-_R1-Pad2_)
 
